/*--------------------------------------------------------------------------------*\
 _______  .______        ______   .__   __.  _______      ______  _______  _______
|       \ |   _  \      /  __  \  |  \ |  | |   ____|    /      ||   ____||       \
|  .--.  ||  |_)  |    |  |  |  | |   \|  | |  |__      |  ,----'|  |__   |  .--.  |
|  |  |  ||      /     |  |  |  | |  . `  | |   __|     |  |     |   __|  |  |  |  |
|  '--'  ||  |\  \----.|  `--'  | |  |\   | |  |____    |  `----.|  |     |  '--'  |
|_______/ | _| `._____| \______/  |__| \__| |_______|    \______||__|     |_______/

\*--------------------------------------------------------------------------------*/
FoamFile
{
    version     2.0;
    format      ascii;
    class       dictionary;
    object      RASProperties;
}
// * * * * * * * * * * * * * * * * * * * * * * * * * * * * * * * * * * * * * //

RASModel            kOmegaSST;

turbulence          on;

printCoeffs         on;


// ************************************************************************* //
